version 2
1
9
.tran 1u 20m{return}{return}{return}.kicad adjustpaths{return}.save all{return}.probe alli
4
1
V(Net-_C4-Pad2_)
 
1
V(Net-_V1-Pad1_)
 
1
V(VOUT2)
 
1
V(VOUT3)
 
